Program Version,EnergyPlus, Version 9.0.1-bb7ca4f0da, YMD=2020.10.28 02:22,
   ** Warning ** Weather file location will be used rather than entered (IDF) Location object.
   **   ~~~   ** ..Location object=DENVER-STAPLETON
   **   ~~~   ** ..Weather File Location=Atlanta Hartsfield Intl Ap GA USA TMY3 WMO#=722190
   **   ~~~   ** ..due to location differences, Latitude difference=[6.13] degrees, Longitude difference=[20.43] degrees.
   **   ~~~   ** ..Time Zone difference=[2.0] hour(s), Elevation difference=[80.88] percent, [1303.00] meters.
   ** Warning ** SetUpDesignDay: Entered DesignDay Barometric Pressure=83411 differs by more than 10% from Standard Barometric Pressure=97679.
   **   ~~~   ** ...occurs in DesignDay=DENVER_STAPLETON ANN HTG 99.6% CONDNS DB, Standard Pressure (based on elevation) will be used.
   ** Warning ** SetUpDesignDay: Entered DesignDay Barometric Pressure=83411 differs by more than 10% from Standard Barometric Pressure=97679.
   **   ~~~   ** ...occurs in DesignDay=DENVER_STAPLETON ANN CLG .4% CONDNS DB=>MWB, Standard Pressure (based on elevation) will be used.
   ************* Testing Individual Branch Integrity
   ************* All Branches passed integrity testing
   ************* Testing Individual Supply Air Path Integrity
   ************* All Supply Air Paths passed integrity testing
   ************* Testing Individual Return Air Path Integrity
   ************* All Return Air Paths passed integrity testing
   ************* No node connection errors were found.
   ************* Beginning Simulation
   ************* Simulation Error Summary *************
   ************* There are 1 unused schedules in input.
   ************* Use Output:Diagnostics,DisplayUnusedSchedules; to see them.
   ************* EnergyPlus Warmup Error Summary. During Warmup: 0 Warning; 0 Severe Errors.
   ************* EnergyPlus Sizing Error Summary. During Sizing: 0 Warning; 0 Severe Errors.
   ************* EnergyPlus Completed Successfully-- 3 Warning; 0 Severe Errors; Elapsed Time=00hr 00min  3.15sec
